44
Properties=species:S:1:pos:R:3 pbc="F F F"
C        0.36541297      -1.70925459       0.57510920
C        0.92624398      -0.45049733      -0.02785640
N        2.34571895      -0.67685639      -0.25114855
C        3.26920823      -1.13423831       0.79317886
N        4.47262082      -0.35953911       0.45542241
C        4.38913488      -0.33204178      -0.97384228
C        3.15016797      -0.51500714      -1.39261873
C        4.33139670       1.01091396       0.93140850
C        5.51958902       1.87319831       0.65533999
C        0.22603841       0.06486306      -1.21132353
C       -1.14858307       0.51674326      -1.05586769
N       -2.23024581      -0.24887792      -0.61223741
C       -2.66710021      -0.80787870       0.65992581
N       -4.12593822      -0.59918601       0.62192293
C       -4.40404257      -0.87256414      -0.75171856
C       -3.31596200      -0.67816940      -1.50194970
C       -4.46351995       0.74763870       0.97087464
C       -5.97144359       0.92644405       0.96063568
H       -0.31450180      -2.20402741      -0.12090698
H        1.23510326      -2.42725579       0.80446202
H       -0.13750874      -1.45518087       1.51654510
H        0.91186689       0.38368934       0.75858900
H        3.56157272      -2.19194165       0.64597422
H        2.90076180      -0.90902465       1.79060973
H        5.26640143      -0.18837838      -1.58282206
H        2.76085618      -0.54292317      -2.40437855
H        3.42321938       1.43865687       0.45266906
H        4.16562699       0.98522964       2.03193603
H        5.21473677       2.67979976      -0.07429808
H        5.85083648       2.42308953       1.57568733
H        6.39579515       1.36186514       0.22948107
H        0.29694409      -0.77649599      -1.99930644
H        0.84121652       0.86773222      -1.74435816
H       -1.16981083       1.46314927      -0.36796594
H       -1.40989488       1.06683010      -2.04820933
H       -2.44716258      -1.87506075       0.78198635
H       -2.26874758      -0.17007663       1.46718300
H       -5.39721964      -1.19472245      -1.06978142
H       -3.24777644      -0.80492669      -2.56903550
H       -4.07832819       1.01186201       1.96606076
H       -4.03174144       1.47653121       0.25596122
H       -6.32486136       1.57971817       1.81038549
H       -6.40505195      -0.09101140       1.14361555
H       -6.26102874       1.33718203      -0.01080463
