21
Properties=species:S:1:pos:R:3 pbc="F F F"
C        3.60128791      -0.49622482       0.01281477
C        2.64179280       0.25123587      -0.47533392
N        1.32825295       0.08944572       0.09025158
C        0.34154977       1.14989481       0.16273546
N       -0.86084482       0.50030262       0.61845425
C       -0.50541343      -0.84775123       0.97270035
C        0.75986980      -1.08152597       0.66551175
C       -1.86064453       0.50519777      -0.43708521
C       -3.16528847      -0.10820690      -0.04215353
H        3.41723587      -1.20889738       0.80906438
H        4.58693689      -0.41640866      -0.36759896
H        2.79660730       0.96505351      -1.26379951
H        0.19895482       1.68522133      -0.79678725
H        0.74359027       1.86668363       0.92124551
H       -1.21909174      -1.51482906       1.42011180
H        1.27945736      -2.00822064       0.82249679
H       -2.03909072       1.56043597      -0.72038535
H       -1.45218740       0.01068644      -1.36520241
H       -3.59497497      -0.69418908      -0.90708559
H       -3.93255891       0.65210044       0.23442885
H       -3.06544076      -0.86000436       0.78995410
