107
Properties=species:S:1:pos:R:3 pbc="F F F"
C        4.40645132       2.57236172      -1.15401377
C        4.86266800       1.35082900      -0.34836776
N        6.00341767       1.78891388       0.47683014
C        7.26538462       2.32301216       0.06980425
N        7.77319673       2.99525777       1.23890985
C        7.04145484       2.44041820       2.31037937
C        6.00809868       1.73469695       1.89740018
C        7.50856566       4.40154158       1.12275232
C        8.03933948       5.11747525       2.35333138
C        3.73373959       0.92456151       0.52232925
C        2.47934341       0.54271099      -0.28976746
N        2.77409239      -0.53874037      -1.14089132
C        3.47190430      -1.76017075      -0.82182358
N        3.40361619      -2.52301650      -2.04132143
C        2.78774662      -1.74149637      -3.02873499
C        2.40818374      -0.57928397      -2.54068754
C        4.67330325      -2.97775136      -2.51466212
C        5.27996927      -4.02672603      -1.60519350
C        1.25603708       0.66477126       0.49680720
C       -0.06984363       0.33852460      -0.18548366
N       -0.19262662      -1.00888402      -0.56661582
C        0.14937523      -2.23297182       0.17741020
N        0.52567852      -3.15044630      -0.89446572
C       -0.30138558      -2.78122701      -1.99115857
C       -0.72280974      -1.53765165      -1.80873321
C        0.20231036      -4.52849868      -0.57955062
C        0.61174862      -5.42942724      -1.73856227
C       -1.12854186       1.11828361       0.45047040
C       -2.54352170       0.98547299      -0.08191040
N       -3.12144948      -0.28913866       0.10594824
C       -4.09010344      -1.01352189      -0.70993734
N       -4.27620755      -2.27434929      -0.05680844
C       -3.52708845      -2.22321550       1.12366560
C       -2.84926795      -1.10777755       1.26073907
C       -5.65043207      -2.58271076       0.19822940
C       -5.80754291      -3.92544771       0.91287198
C       -3.24446243       2.23244367       0.30097989
C       -4.64351251       2.46687021      -0.04248030
N       -5.68085520       1.70879269       0.55764731
C       -7.06365006       1.73532200       0.05642830
N       -7.84110913       1.39371330       1.20278596
C       -6.95408979       0.71301803       2.05039082
C       -5.69664170       0.88821287       1.68801195
C       -8.30712803       2.58830880       1.86519325
C       -9.33806009       3.32883456       1.00696084
H        3.64443263       3.10661911      -0.54595278
H        5.28845883       3.19842833      -1.37038661
H        3.99884225       2.23315340      -2.12435703
H        5.26246563       0.62913087      -1.04523025
H        7.99205519       1.49011688      -0.17300235
H        7.23128703       3.00072666      -0.80765813
H        7.32669414       2.59796427       3.35258832
H        5.28616470       1.20700876       2.50577130
H        6.40856644       4.54416452       1.10296749
H        7.93785462       4.83096518       0.19676770
H        7.27732094       5.10252921       3.18309956
H        8.92947304       4.59592581       2.76586168
H        8.23406473       6.15408688       2.07111473
H        3.46958246       1.78013993       1.17572997
H        3.94618996       0.04489833       1.14315860
H        2.43237026       1.49076705      -0.99672484
H        3.04259389      -2.36953058      -0.03039637
H        4.54150620      -1.55264456      -0.53470690
H        2.64014558      -2.03604740      -4.04206030
H        1.90439311       0.20351501      -3.10867141
H        4.47938964      -3.50073674      -3.48796449
H        5.40674113      -2.19259120      -2.74572875
H        4.48104927      -4.77317045      -1.35089693
H        5.75642320      -3.60231167      -0.72369340
H        6.03664624      -4.56980577      -2.20337235
H        1.24739583      -0.01987119       1.41304135
H        1.16958752       1.68407564       0.96783434
H        0.07866196       0.88682221      -1.26158828
H        0.95869391      -1.96797557       0.85184557
H       -0.72250594      -2.62716768       0.70393001
H       -0.52057005      -3.44152702      -2.81551017
H       -1.37167768      -0.94819868      -2.46252096
H       -0.87784957      -4.69657292      -0.40470479
H        0.73137086      -4.87630016       0.33557922
H        1.55641913      -5.02164657      -2.16472330
H       -0.22300663      -5.47830030      -2.45863464
H        0.90252587      -6.43733442      -1.34128505
H       -1.13499153       0.87098848       1.56531069
H       -0.81994160       2.20185108       0.46032807
H       -2.37090247       1.10895589      -1.25502895
H       -3.61998355      -1.23615114      -1.71056897
H       -5.02418783      -0.47385123      -0.88759206
H       -3.50003046      -3.02144021       1.86227039
H       -2.19191627      -0.84885330       2.10647306
H       -6.16628614      -1.81615191       0.81481287
H       -6.22242684      -2.70403084      -0.75674161
H       -5.18216043      -4.70454769       0.44396749
H       -5.48882728      -3.87623065       1.97090756
H       -6.86135930      -4.26687030       0.85575103
H       -2.65370680       3.10306196      -0.15811751
H       -3.10478644       2.45372559       1.40528340
H       -4.86485552       3.55664854       0.23765284
H       -4.81182151       2.50070794      -1.15941580
H       -7.31005604       2.73094605      -0.37742782
H       -7.10769729       0.92618207      -0.71269852
H       -7.28351544       0.11688412       2.89980977
H       -4.87598541       0.46114895       2.22407432
H       -7.41466508       3.24577752       2.02056396
H       -8.73837814       2.36499346       2.86247631
H       -8.76411748       4.01110261       0.36061029
H      -10.03536700       3.90135762       1.63459450
H       -9.95108609       2.60259599       0.41807757
