65
Properties=species:S:1:pos:R:3 pbc="F F F"
C       -1.07556538      -2.21317769       0.21144798
C       -1.85165564      -1.23762823      -0.57633704
N       -3.27185198      -1.46484775      -0.27779317
C       -4.03723086      -2.69330186      -0.53152355
N       -5.08656473      -2.67800196       0.46436794
C       -5.24480172      -1.29405077       0.73361177
C       -4.21297907      -0.58488393       0.31416853
C       -6.34627931      -3.16119490      -0.07384010
C       -6.31617763      -4.62527565      -0.40924309
C       -1.61869743       0.19333157      -0.44374904
C       -0.27743598       0.78372624      -0.76872856
N       -0.29072920       2.20503936      -0.56946596
C        0.57531589       3.27573296      -1.02378662
N        0.75281939       3.96200075       0.25829784
C       -0.60073645       3.97569257       0.72796309
C       -1.26793740       2.91515217       0.24114906
C        1.25272904       5.29510304       0.12776683
C        0.24115994       6.22354914      -0.51432138
C        0.86307463       0.05494059      -0.17011372
C        2.19317419       0.69050735      -0.49853611
N        3.28974110      -0.10980366       0.06693698
C        4.72815042       0.16335749      -0.04534216
N        5.28503814      -1.18496938      -0.07611301
C        4.39274087      -1.94303434       0.74748168
C        3.21375832      -1.30164763       0.82831406
C        6.59167821      -1.19887879       0.50501102
C        7.15510291      -2.62201399       0.45324399
H       -1.77312324      -3.00055075       0.65832601
H       -0.53187191      -1.85151183       1.08613622
H       -0.45569940      -2.86584726      -0.47467025
H       -1.78536290      -1.53255597      -1.67781751
H       -3.42434551      -3.59415576      -0.47021081
H       -4.48006570      -2.67015001      -1.54990334
H       -6.12881871      -0.89428027       1.23154974
H       -4.07279168       0.48973389       0.39094382
H       -7.07461155      -3.06472412       0.78023163
H       -6.71866535      -2.50858564      -0.88325763
H       -7.35521964      -4.99717048      -0.48715436
H       -5.87177755      -4.77422037      -1.41521705
H       -5.75391582      -5.13478143       0.40244246
H       -1.83138052       0.50095091       0.62177879
H       -2.41865689       0.71957560      -1.01772029
H       -0.17232651       0.65167080      -1.88806504
H        1.47161926       3.00321424      -1.54350131
H       -0.01125917       4.01322775      -1.64272645
H       -1.05290533       4.72098744       1.38175233
H       -2.30226180       2.63797659       0.40932400
H        1.42432735       5.67055417       1.16870022
H        2.22056087       5.29882333      -0.42055501
H        0.66202495       6.63945660      -1.44839537
H        0.00537526       7.08619175       0.14754943
H       -0.71728850       5.70677047      -0.76503251
H        0.92278923      -0.97312520      -0.58135707
H        0.84135815       0.06773614       0.96227829
H        2.31431221       1.66128338       0.07366694
H        2.36376482       0.78221957      -1.57419647
H        4.97768116       0.68418334      -0.99117190
H        5.05881988       0.72901396       0.85301426
H        4.57574532      -2.88394372       1.25207340
H        2.32702398      -1.62020686       1.38035552
H        7.22784596      -0.51651287      -0.12494088
H        6.62668528      -0.79689625       1.53041300
H        8.20069888      -2.55140552       0.09195939
H        6.55577997      -3.21543558      -0.25893618
H        7.12009490      -3.04293279       1.47525394
